[TITLE]


[JUNCTIONS]
;ID              	Elev        	Demand      	Pattern         
 101812971       	21.4270     	0.062580    	GEN_09_04_Renkum_Heelsum	;
 101812988       	21.4270     	0.000000    	                	;
 1022459_1       	33.8160     	0.000000    	                	;
 1022459_2       	33.8160     	0.000000    	                	;
 1022503_1       	54.0520     	0.000000    	                	;
 1022503_2       	54.0520     	0.000000    	                	;
 1022653         	49.3100     	0.000000    	                	;
 1022654         	49.5330     	0.007306    	GEN_09_01_Oosterbeek_hoog	;
 1022791_1       	41.5490     	0.000000    	                	;
 1022791_2       	41.5490     	0.053425    	GEN_09_03_Oosterbeek_laag	;
 1022804_1       	42.9130     	0.032991    	GEN_09_03_Oosterbeek_laag	;
 1022804_2       	42.9130     	0.000000    	                	;
 1022908_1       	42.6890     	0.000000    	                	;
 1022908_2       	42.6890     	0.000000    	                	;
 1022914         	38.9700     	0.000000    	                	;
 1022915         	38.9280     	0.421918    	GEN_09_03_Oosterbeek_laag	;
 1022924_1       	38.9700     	0.000000    	                	;
 1022924_2       	38.9700     	0.000000    	                	;
 1022960         	44.7000     	0.101256    	GEN_09_03_Oosterbeek_laag	;
 1023011_1       	40.8630     	0.000000    	                	;
 1023011_2       	40.8630     	0.000000    	                	;
 1023012_1       	40.8670     	0.000000    	                	;
 1023012_2       	40.8670     	0.000000    	                	;
 1023081         	13.8550     	0.082763    	GEN_09_03_Oosterbeek_laag	;
 1023082         	14.6660     	0.006164    	GEN_09_03_Oosterbeek_laag	;
 1023213         	22.3030     	0.000000    	                	;
 1023214         	23.2800     	0.000000    	                	;
 1023226         	25.3360     	0.054110    	GEN_09_03_Oosterbeek_laag	;
 1023236_1       	18.3650     	0.000000    	                	;
 1023236_2       	18.3650     	0.007534    	GEN_09_03_Oosterbeek_laag	;
 1023252         	23.4930     	0.034932    	GEN_09_03_Oosterbeek_laag	;
 1023316_1       	33.2100     	0.000000    	                	;
 1023316_2       	33.2100     	0.000000    	                	;
 1023333_1       	32.9610     	0.000000    	                	;
 1023333_2       	32.9610     	0.000000    	                	;
 1023385_1       	29.4540     	0.000000    	                	;
 1023385_2       	29.4540     	0.012671    	GEN_09_01_Oosterbeek_hoog	;
 1023391         	30.7730     	0.000000    	                	;
 1023400         	30.7730     	0.000000    	                	;
 1023412         	30.6890     	0.046005    	GEN_09_03_Oosterbeek_laag	;
 1023413         	30.6700     	0.007192    	GEN_09_03_Oosterbeek_laag	;
 1023442         	27.2810     	0.156164    	GEN_09_03_Oosterbeek_laag	;
 1023461_1       	31.0310     	0.000000    	                	;
 1023461_2       	31.0310     	0.000000    	                	;
 1023485_1       	31.7990     	0.023858    	GEN_09_03_Oosterbeek_laag	;
 1023485_2       	31.7990     	0.000000    	                	;
 1023590         	27.8840     	0.000000    	                	;
 1023591         	27.1940     	0.000000    	                	;
 1023630_1       	27.9770     	0.000000    	                	;
 1023630_2       	27.9770     	0.078310    	GEN_09_03_Oosterbeek_laag	;
 1023671         	18.5310     	0.082306    	GEN_09_03_Oosterbeek_laag	;
 1023700_1       	15.9850     	0.073744    	GEN_09_03_Oosterbeek_laag	;
 1023700_2       	15.9850     	0.000000    	                	;
 1023831_1       	19.2990     	0.000000    	                	;
 1023831_2       	19.2990     	0.000000    	                	;
 1023837         	17.6010     	0.020890    	GEN_09_03_Oosterbeek_laag	;
 1023838         	17.4890     	0.000000    	                	;
 1023899         	19.6320     	0.122489    	GEN_09_03_Oosterbeek_laag	;
 1023917         	17.1630     	0.161644    	GEN_09_03_Oosterbeek_laag	;
 1023918         	17.3820     	0.000000    	                	;
 1023991         	14.4160     	0.000913    	GEN_09_03_Oosterbeek_laag	;
 1024111         	22.1250     	0.016438    	GEN_09_03_Oosterbeek_laag	;
 1024117_1       	22.1250     	0.000000    	                	;
 1024117_2       	22.1250     	0.000000    	                	;
 1024210         	51.0070     	0.075228    	GEN_09_01_Oosterbeek_hoog	;
 1024263         	60.9310     	0.037443    	GEN_09_01_Oosterbeek_hoog	;
 1024272         	59.0960     	0.000000    	                	;
 1024347         	27.3090     	0.000000    	                	;
 1024365         	26.4380     	0.005023    	GEN_09_03_Oosterbeek_laag	;
 1024374         	26.3500     	0.182306    	GEN_09_03_Oosterbeek_laag	;
 1024517         	25.4780     	0.078001    	GEN_09_03_Oosterbeek_laag	;
 1024536         	23.0830     	0.000000    	                	;
 1024554_1       	23.2930     	0.026027    	GEN_09_03_Oosterbeek_laag	;
 1024554_2       	23.2930     	0.000000    	                	;
 1024560_1       	24.1340     	0.000000    	                	;
 1024560_2       	24.1340     	0.043265    	GEN_09_03_Oosterbeek_laag	;
 1024657         	24.8890     	0.078995    	GEN_09_03_Oosterbeek_laag	;
 1024681         	23.2800     	0.137671    	GEN_09_03_Oosterbeek_laag	;
 1024701         	25.1030     	0.093607    	GEN_09_03_Oosterbeek_laag	;
 1024711         	44.6240     	0.006849    	GEN_09_01_Oosterbeek_hoog	;
 1024747         	46.9190     	0.000000    	                	;
 1024752         	46.9190     	0.000000    	                	;
 1024753_1       	46.9190     	0.000000    	                	;
 1024753_2       	46.9190     	0.000000    	                	;
 1024795_1       	50.6320     	0.021347    	GEN_09_01_Oosterbeek_hoog	;
 1024795_2       	50.6320     	0.000000    	                	;
 1024820         	51.2170     	0.000000    	                	;
 1024847_1       	49.2080     	0.000000    	                	;
 1024847_2       	49.2080     	0.000000    	                	;
 1024867_1       	52.3500     	0.012785    	GEN_09_01_Oosterbeek_hoog	;
 1024867_2       	52.3500     	0.000000    	                	;
 1024935         	50.9370     	0.040639    	GEN_09_01_Oosterbeek_hoog	;
 1024936_1       	50.7920     	0.000000    	                	;
 1024936_2       	50.7920     	0.000000    	                	;
 1025024         	22.2650     	0.012443    	GEN_09_03_Oosterbeek_laag	;
 1025025         	22.2650     	0.000000    	                	;
 1025066         	21.5350     	0.044749    	GEN_09_03_Oosterbeek_laag	;
 1025085         	22.1470     	0.023744    	GEN_09_03_Oosterbeek_laag	;
 1025116         	22.1760     	0.018493    	GEN_09_03_Oosterbeek_laag	;
 1025138         	22.7800     	0.032420    	GEN_09_03_Oosterbeek_laag	;
 1025255         	27.7730     	0.050799    	GEN_09_03_Oosterbeek_laag	;
 1025265         	27.9380     	0.000000    	                	;
 1025280_1       	27.2670     	0.000000    	                	;
 1025280_2       	27.2670     	0.000000    	                	;
 1025281         	27.1700     	0.001027    	GEN_09_03_Oosterbeek_laag	;
 1025287_1       	27.2670     	0.090228    	GEN_09_03_Oosterbeek_laag	;
 1025287_2       	27.2670     	0.000000    	                	;
 1025354         	31.2820     	0.000000    	                	;
 1025384         	52.4220     	0.024543    	GEN_09_01_Oosterbeek_hoog	;
 1025422         	52.5270     	0.000000    	                	;
 1025423         	52.5270     	0.000000    	                	;
 1025446         	51.7920     	0.000000    	                	;
 1025447         	52.1400     	0.035502    	GEN_09_01_Oosterbeek_hoog	;
 1025482         	52.8960     	0.000000    	                	;
 1025491         	52.9630     	0.015068    	GEN_09_01_Oosterbeek_hoog	;
 1025513         	52.9650     	0.000000    	                	;
 1025514         	52.9650     	0.016210    	GEN_09_01_Oosterbeek_hoog	;
 1025536         	53.5060     	0.031050    	GEN_09_01_Oosterbeek_hoog	;
 1025563         	53.3940     	0.091096    	GEN_09_01_Oosterbeek_hoog	;
 1025577         	53.0680     	0.039840    	GEN_09_01_Oosterbeek_hoog	;
 1025578         	53.0430     	0.000000    	                	;
 1025605_1       	30.3860     	0.000000    	                	;
 1025605_2       	30.3860     	0.000000    	                	;
 1025671_1       	30.7030     	0.079110    	GEN_09_01_Oosterbeek_hoog	;
 1025671_2       	30.7030     	0.000000    	                	;
 1025763         	13.2560     	0.000000    	                	;
 1025833_1       	52.7020     	0.000000    	                	;
 1025833_2       	52.7020     	0.000000    	                	;
 1025843         	55.2150     	0.034703    	GEN_09_01_Oosterbeek_hoog	;
 102588411       	21.7350     	0.000000    	                	;
 102588412       	22.1900     	0.000000    	                	;
 102588468       	19.6650     	0.062215    	GEN_09_04_Renkum_Heelsum	;
 102588469       	20.1820     	0.092694    	GEN_09_04_Renkum_Heelsum	;
 1026011_1       	51.7160     	0.000000    	                	;
 1026011_2       	51.7160     	0.000000    	                	;
 1026031         	52.2740     	0.000000    	                	;
 1026032         	52.6920     	0.008333    	GEN_09_01_Oosterbeek_hoog	;
 1026041_1       	52.1900     	0.005936    	GEN_09_01_Oosterbeek_hoog	;
 1026041_2       	52.1900     	0.000000    	                	;
 1026154_1       	42.5130     	0.000000    	                	;
 1026154_2       	42.5130     	0.000000    	                	;
 1026202         	42.5130     	0.082648    	GEN_09_03_Oosterbeek_laag	;
 1026203         	42.5130     	0.017808    	GEN_09_03_Oosterbeek_laag	;
 1026213_1       	42.0160     	0.049772    	GEN_09_03_Oosterbeek_laag	;
 1026213_2       	42.0160     	0.000000    	                	;
 1026529         	33.6020     	0.001027    	GEN_09_03_Oosterbeek_laag	;
 1026589         	35.6430     	0.015639    	GEN_09_03_Oosterbeek_laag	;
 1026767         	42.7170     	0.011758    	GEN_09_03_Oosterbeek_laag	;
 1026776_1       	42.2470     	0.000000    	                	;
 1026776_2       	42.2470     	0.000000    	                	;
 1026807_1       	45.0480     	0.000000    	                	;
 1026807_2       	45.0480     	0.055936    	GEN_09_03_Oosterbeek_laag	;
 1026816_1       	45.0480     	0.000000    	                	;
 1026816_2       	45.0480     	0.000000    	                	;
 1026851_1       	40.5900     	0.077283    	GEN_09_03_Oosterbeek_laag	;
 1026851_2       	40.5900     	0.000000    	                	;
 1027108         	39.1790     	0.015639    	GEN_09_03_Oosterbeek_laag	;
 1027151         	38.8990     	0.088813    	GEN_09_03_Oosterbeek_laag	;
 1027152_1       	38.8990     	0.000000    	                	;
 1027152_2       	38.8990     	0.000000    	                	;
 1027172         	39.0400     	0.047489    	GEN_09_03_Oosterbeek_laag	;
 1027173         	38.9470     	0.005708    	GEN_09_03_Oosterbeek_laag	;
 1027187         	40.5900     	0.025913    	GEN_09_03_Oosterbeek_laag	;
 1027209         	34.2440     	0.227169    	GEN_09_03_Oosterbeek_laag	;
 1027224_1       	35.0680     	0.000000    	                	;
 1027224_2       	35.0680     	0.052968    	GEN_09_03_Oosterbeek_laag	;
 1027273_1       	42.6190     	0.000000    	                	;
 1027273_2       	42.6190     	0.009475    	GEN_09_03_Oosterbeek_laag	;
 1027316         	39.0290     	0.000000    	                	;
 1027317_1       	39.0290     	0.000000    	                	;
 1027317_2       	39.0290     	0.010639    	GEN_09_03_Oosterbeek_laag	;
 1027323_1       	38.7190     	0.000000    	                	;
 1027323_2       	38.7190     	0.000000    	                	;
 1027332         	38.7190     	0.024201    	GEN_09_03_Oosterbeek_laag	;
 1027360         	37.0870     	0.022032    	GEN_09_03_Oosterbeek_laag	;
 1027484         	17.7000     	0.029795    	GEN_09_03_Oosterbeek_laag	;
 1027532         	18.3350     	0.038242    	GEN_09_03_Oosterbeek_laag	;
 1027540         	17.2030     	0.086073    	GEN_09_03_Oosterbeek_laag	;
 1027541         	17.5940     	0.015411    	GEN_09_03_Oosterbeek_laag	;
 1027572         	18.5980     	0.038356    	GEN_09_03_Oosterbeek_laag	;
 1027608         	18.7560     	0.022374    	GEN_09_03_Oosterbeek_laag	;
 1027650         	18.2730     	0.024658    	GEN_09_03_Oosterbeek_laag	;
 1027651         	18.1520     	0.038699    	GEN_09_03_Oosterbeek_laag	;
 1027683         	19.2990     	0.022603    	GEN_09_03_Oosterbeek_laag	;
 1027684         	19.2990     	0.000000    	                	;
 1027708_1       	19.3720     	0.000000    	                	;
 1027708_2       	19.3720     	0.000000    	                	;
 1027771         	19.3350     	0.028082    	GEN_09_03_Oosterbeek_laag	;
 1027877         	16.7770     	0.000000    	                	;
 1027986         	24.6130     	0.003539    	GEN_09_03_Oosterbeek_laag	;
 1028166_1       	25.1380     	0.000000    	                	;
 1028166_2       	25.1380     	0.000000    	                	;
 1028277         	53.2660     	0.011986    	GEN_09_01_Oosterbeek_hoog	;
 1028313         	53.4650     	0.000000    	                	;
 1028314         	53.1300     	0.000000    	                	;
 1028323_1       	53.5750     	0.000000    	                	;
 1028323_2       	53.5750     	0.000000    	                	;
 1028430         	54.1810     	0.018037    	GEN_09_01_Oosterbeek_hoog	;
 1028476         	53.5690     	0.114155    	GEN_09_01_Oosterbeek_hoog	;
 1028517_1       	53.4560     	0.000000    	                	;
 1028517_2       	53.4560     	0.000000    	                	;
 1028624         	53.4150     	0.000000    	                	;
 1028625         	54.0000     	0.011301    	GEN_09_01_Oosterbeek_hoog	;
 1028664_1       	44.1450     	0.000000    	                	;
 1028664_2       	44.1450     	0.000000    	                	;
 1028665         	44.1450     	0.000000    	                	;
 1028694_1       	36.1680     	0.000000    	                	;
 1028694_2       	36.1680     	0.000000    	                	;
 1028701         	34.7890     	0.000000    	                	;
 1028728_1       	34.6770     	0.331735    	GEN_09_01_Oosterbeek_hoog	;
 1028728_2       	34.6770     	0.000000    	                	;
 1028750         	42.0750     	0.000000    	                	;
 1028755_1       	41.8290     	0.000000    	                	;
 1028755_2       	41.8290     	0.000000    	                	;
 1028761         	35.2950     	0.000000    	                	;
 1028831_1       	41.5150     	0.082991    	GEN_09_03_Oosterbeek_laag	;
 1028831_2       	41.5150     	0.000000    	                	;
 1028839         	38.2890     	0.000000    	                	;
 1028857         	20.8570     	0.025114    	GEN_09_03_Oosterbeek_laag	;
 1028858         	22.0690     	0.028196    	GEN_09_03_Oosterbeek_laag	;
 1028889         	37.0800     	0.000000    	                	;
 1028926         	30.3070     	0.072831    	GEN_09_03_Oosterbeek_laag	;
 1029018_1       	24.6130     	0.000000    	                	;
 1029018_2       	24.6130     	0.000000    	                	;
 1029078_1       	32.8800     	0.000000    	                	;
 1029078_2       	32.8800     	0.000000    	                	;
 1029091         	35.5160     	0.141781    	GEN_09_03_Oosterbeek_laag	;
 1029108         	26.7880     	0.044749    	GEN_09_03_Oosterbeek_laag	;
 1029205_1       	50.6320     	0.034932    	GEN_09_01_Oosterbeek_hoog	;
 1029205_2       	50.6320     	0.000000    	                	;
 1029232_1       	50.3310     	0.000000    	                	;
 1029232_2       	50.3310     	0.000000    	                	;
 1029239         	50.1690     	0.151027    	GEN_09_01_Oosterbeek_hoog	;
 1029277         	48.8490     	0.065982    	GEN_09_01_Oosterbeek_hoog	;
 1029403         	49.8230     	0.438128    	GEN_09_01_Oosterbeek_hoog	;
 1029404         	50.0370     	0.000000    	                	;
 1029435         	37.1010     	0.000000    	                	;
 1029440         	33.4930     	0.000000    	                	;
 1029441         	33.4140     	0.059018    	GEN_09_03_Oosterbeek_laag	;
 1029451_1       	33.4930     	0.022831    	GEN_09_03_Oosterbeek_laag	;
 1029451_2       	33.4930     	0.000000    	                	;
 1029500         	27.0150     	0.066895    	GEN_09_03_Oosterbeek_laag	;
 1029510         	26.5460     	0.101370    	GEN_09_03_Oosterbeek_laag	;
 1029521_1       	26.7300     	0.000000    	                	;
 1029521_2       	26.7300     	0.000000    	                	;
 1029563_1       	26.7300     	0.000000    	                	;
 1029563_2       	26.7300     	0.000000    	                	;
 1029570_1       	37.8910     	0.026941    	GEN_09_03_Oosterbeek_laag	;
 1029570_2       	37.8910     	0.000000    	                	;
 1029576_1       	37.9460     	0.000000    	                	;
 1029576_2       	37.9460     	0.000000    	                	;
 1029663_1       	28.4130     	0.050799    	GEN_09_03_Oosterbeek_laag	;
 1029663_2       	28.4130     	0.000000    	                	;
 1029673_1       	28.2180     	0.000000    	                	;
 1029673_2       	28.2180     	0.033562    	GEN_09_03_Oosterbeek_laag	;
 1029769         	54.3990     	0.022032    	GEN_09_01_Oosterbeek_hoog	;
 1029777_1       	54.3370     	0.000000    	                	;
 1029777_2       	54.3370     	0.000000    	                	;
 1029809_1       	49.4340     	0.000000    	                	;
 1029809_2       	49.4340     	0.104452    	GEN_09_01_Oosterbeek_hoog	;
 1029870         	56.3900     	0.000000    	                	;
 1029942_1       	54.4730     	0.000000    	                	;
 1029942_2       	54.4730     	0.000000    	                	;
 1029954         	54.3090     	0.000000    	                	;
 1030016_1       	28.8880     	0.000000    	                	;
 1030016_2       	28.8880     	0.000000    	                	;
 1030042_1       	30.3240     	0.000000    	                	;
 1030042_2       	30.3240     	0.030023    	GEN_09_01_Oosterbeek_hoog	;
 1030063_1       	30.3240     	0.101712    	GEN_09_01_Oosterbeek_hoog	;
 1030063_2       	30.3240     	0.000000    	                	;
 1030140_1       	28.0640     	0.000000    	                	;
 1030140_2       	28.0640     	0.000000    	                	;
 1030145         	28.0640     	0.000000    	                	;
 1030155         	29.1190     	0.036187    	GEN_09_01_Oosterbeek_hoog	;
 1030220         	14.4730     	0.050799    	GEN_09_03_Oosterbeek_laag	;
 1030221         	14.4730     	0.000000    	                	;
 1030242         	14.4440     	0.014155    	GEN_09_03_Oosterbeek_laag	;
 1030470         	14.2760     	0.000000    	                	;
 1030480_1       	14.2760     	0.000000    	                	;
 1030480_2       	14.2760     	0.000000    	                	;
 1030512         	11.9800     	0.085845    	GEN_09_03_Oosterbeek_laag	;
 1030749_1       	52.4980     	0.118836    	GEN_09_01_Oosterbeek_hoog	;
 1030749_2       	52.4980     	0.000000    	                	;
 1030770         	52.5620     	0.046918    	GEN_09_01_Oosterbeek_hoog	;
 1030771         	52.7020     	0.000000    	                	;
 1030817         	54.9730     	0.247831    	GEN_09_01_Oosterbeek_hoog	;
 1030832_1       	53.0700     	0.000000    	                	;
 1030832_2       	53.0700     	0.000000    	                	;
 1030870_1       	50.0610     	0.000000    	                	;
 1030870_2       	50.0610     	0.975000    	GEN_09_01_Oosterbeek_hoog	;
 1030876_1       	50.0610     	0.000000    	                	;
 1030876_2       	50.0610     	0.000000    	                	;
 1030964         	28.8390     	0.117694    	Heveadorp@      	;
 1031116         	25.9960     	0.027626    	GEN_09_01_Oosterbeek_hoog	;
 1031117         	35.4310     	0.000000    	                	;
 1031152         	26.0930     	0.031621    	GEN_09_03_Oosterbeek_laag	;
 1031161         	55.0560     	0.000000    	                	;
 1031170         	55.0090     	0.000000    	                	;
 1031175_1       	55.2120     	0.000000    	                	;
 1031175_2       	55.2120     	0.000000    	                	;
 1031182         	56.0710     	0.000000    	                	;
 1031220_1       	55.4380     	0.000000    	                	;
 1031220_2       	55.4380     	0.000000    	                	;
 1031231         	54.6960     	0.000000    	                	;
 1031231!        	54.6960     	0.000000    	                	;
 1031242         	55.4380     	0.000000    	                	;
 1031289_1       	55.1920     	0.000000    	                	;
 1031289_2       	55.1920     	0.019292    	GEN_09_01_Oosterbeek_hoog	;
 1031366_1       	55.3250     	0.000000    	                	;
 1031366_2       	55.3250     	0.217466    	GEN_09_01_Oosterbeek_hoog	;
 1031435         	33.9440     	0.091210    	GEN_09_03_Oosterbeek_laag	;
 1031436         	34.1480     	0.017009    	GEN_09_03_Oosterbeek_laag	;
 1031513         	34.6810     	0.016210    	GEN_09_01_Oosterbeek_hoog	;
 1031514         	35.3970     	0.000000    	                	;
 1031540         	38.7380     	0.000000    	                	;
 1031541         	40.7320     	0.000000    	                	;
 1031583_1       	26.7370     	0.000000    	                	;
 1031583_2       	26.7370     	0.000000    	                	;
 1031598_1       	39.9630     	0.000000    	                	;
 1031598_2       	39.9630     	0.000000    	                	;
 1031652         	40.3750     	0.008105    	GEN_09_01_Oosterbeek_hoog	;
 1031653         	40.2130     	0.061073    	GEN_09_01_Oosterbeek_hoog	;
 1031855_1       	46.6500     	0.000000    	                	;
 1031855_2       	46.6500     	0.000000    	                	;
 1031873_1       	46.8970     	0.000000    	                	;
 1031873_2       	46.8970     	0.071347    	GEN_09_01_Oosterbeek_hoog	;
 1031884         	46.1830     	0.031735    	GEN_09_01_Oosterbeek_hoog	;
 1031885         	45.9900     	0.040868    	GEN_09_01_Oosterbeek_hoog	;
 1031938         	45.2540     	0.018265    	GEN_09_01_Oosterbeek_hoog	;
 1031939         	45.3790     	0.007078    	GEN_09_01_Oosterbeek_hoog	;
 1032011_1       	59.0900     	0.000000    	                	;
 1032011_2       	59.0900     	0.021005    	GEN_09_01_Oosterbeek_hoog	;
 1032080         	58.7720     	0.011073    	GEN_09_01_Oosterbeek_hoog	;
 1032081         	58.7550     	0.000000    	                	;
 1032104         	57.9200     	0.000000    	                	;
 1032105_1       	57.9200     	0.000000    	                	;
 1032105_2       	57.9200     	0.000000    	                	;
 1032111_1       	59.0960     	0.028311    	GEN_09_01_Oosterbeek_hoog	;
 1032111_2       	59.0960     	0.000000    	                	;
 1032117_1       	59.1950     	0.006735    	GEN_09_01_Oosterbeek_hoog	;
 1032117_2       	59.1950     	0.000000    	                	;
 1032137         	58.7830     	0.000000    	                	;
 1032303_1       	60.2600     	0.000000    	                	;
 1032303_2       	60.2600     	0.000000    	                	;
 1032723_1       	40.8920     	0.000000    	                	;
 1032723_2       	40.8920     	0.000000    	                	;
 1032806_1       	40.7420     	0.000000    	                	;
 1032806_2       	40.7420     	0.007420    	GEN_09_01_Oosterbeek_hoog	;
 1032836         	40.5760     	0.000000    	                	;
 1032841         	40.5760     	0.244406    	GEN_09_01_Oosterbeek_hoog	;
 1032857_1       	41.6370     	0.000000    	                	;
 1032857_2       	41.6370     	0.000000    	                	;
 1032887         	40.7030     	0.000000    	                	;
 1032905_1       	40.7420     	0.035160    	GEN_09_01_Oosterbeek_hoog	;
 1032905_2       	40.7420     	0.000000    	                	;
 1033038         	57.8167     	0.000000    	                	;
 1033047         	56.5870     	0.000000    	                	;
 1033057         	56.6440     	0.000000    	                	;
 1033066_1       	56.5930     	0.000000    	                	;
 1033066_2       	56.5930     	0.010731    	GEN_09_01_Oosterbeek_hoog	;
 1033078         	55.7960     	0.000000    	                	;
 1033106_1       	55.4650     	0.000000    	                	;
 1033106_2       	55.4650     	0.000000    	                	;
 1033113         	56.8730     	0.003425    	GEN_09_01_Oosterbeek_hoog	;
 1033123         	56.0730     	0.012443    	GEN_09_01_Oosterbeek_hoog	;
 1033197         	57.3700     	0.096918    	GEN_09_01_Oosterbeek_hoog	;
 1033221         	32.8040     	0.000000    	                	;
 1033230         	32.0230     	0.000000    	                	;
 1033238         	58.6500     	0.000000    	                	;
 1033300         	58.2350     	0.032991    	GEN_09_01_Oosterbeek_hoog	;
 1033309         	57.0330     	0.023059    	GEN_09_01_Oosterbeek_hoog	;
 1033372_1       	49.5200     	0.000000    	                	;
 1033372_2       	49.5200     	0.017922    	GEN_09_01_Oosterbeek_hoog	;
 1033413         	36.8230     	0.000114    	GEN_09_01_Oosterbeek_hoog	;
 1033501_1       	28.0400     	0.021689    	GEN_09_01_Oosterbeek_hoog	;
 1033501_2       	28.0400     	0.000000    	                	;
 1033591         	28.0400     	0.057420    	GEN_09_01_Oosterbeek_hoog	;
 1033643         	27.8520     	0.064498    	GEN_09_01_Oosterbeek_hoog	;
 1033678         	28.4650     	0.000000    	                	;
 1033679_1       	28.4650     	0.009361    	GEN_09_01_Oosterbeek_hoog	;
 1033679_2       	28.4650     	0.000000    	                	;
 1033910_1       	54.4730     	0.000000    	                	;
 1033910_2       	54.4730     	0.000000    	                	;
 1033917_1       	54.2760     	0.000000    	                	;
 1033917_2       	54.2760     	0.000000    	                	;
 1033928_1       	52.5060     	0.000000    	                	;
 1033928_2       	52.5060     	0.000000    	                	;
 1033994_1       	50.1990     	0.043836    	GEN_09_01_Oosterbeek_hoog	;
 1033994_2       	50.1990     	0.000000    	                	;
 1034000_1       	49.6960     	0.000000    	                	;
 1034000_2       	49.6960     	0.052283    	GEN_09_01_Oosterbeek_hoog	;
 1034043         	51.2900     	0.008447    	GEN_09_01_Oosterbeek_hoog	;
 1034093         	51.0900     	0.063813    	GEN_09_01_Oosterbeek_hoog	;
 1034094         	51.0900     	0.000000    	                	;
 1034100_1       	51.0900     	0.000000    	                	;
 1034100_2       	51.0900     	0.000000    	                	;
 1034206_1       	28.0350     	0.041210    	Heveadorp@      	;
 1034206_2       	28.0350     	0.000000    	                	;
 1034211_1       	28.0350     	0.000000    	                	;
 1034211_2       	28.0350     	0.000000    	                	;
 1034220         	28.1640     	0.003767    	Heveadorp@      	;
 1034289_1       	31.4400     	0.000000    	                	;
 1034289_2       	31.4400     	0.000000    	                	;
 1034295_1       	28.1640     	0.000000    	                	;
 1034295_2       	28.1640     	0.000000    	                	;
 1034444_1       	29.9820     	0.000000    	                	;
 1034444_2       	29.9820     	0.051712    	Heveadorp@      	;
 1034533_1       	55.9210     	0.000000    	                	;
 1034533_2       	55.9210     	0.014384    	GEN_09_01_Oosterbeek_hoog	;
 1034539_1       	53.8250     	0.000000    	                	;
 1034539_2       	53.8250     	0.000000    	                	;
 1034578         	55.8040     	0.072717    	GEN_09_01_Oosterbeek_hoog	;
 1034607_1       	55.8040     	0.000000    	                	;
 1034607_2       	55.8040     	0.000000    	                	;
 1034741         	55.9200     	0.032420    	GEN_09_01_Oosterbeek_hoog	;
 1034742         	56.0960     	0.009932    	GEN_09_01_Oosterbeek_hoog	;
 1034750         	55.9200     	0.000000    	                	;
 1034763         	56.1800     	0.011644    	GEN_09_01_Oosterbeek_hoog	;
 1034772         	55.8740     	0.007420    	GEN_09_01_Oosterbeek_hoog	;
 1034805         	56.0930     	0.011758    	GEN_09_01_Oosterbeek_hoog	;
 1035019         	56.3960     	0.150114    	GEN_09_01_Oosterbeek_hoog	;
 1035150_1       	22.6050     	0.000000    	                	;
 1035150_2       	22.6050     	0.036758    	GEN_09_03_Oosterbeek_laag	;
 1035210         	21.9820     	0.037329    	GEN_09_03_Oosterbeek_laag	;
 1035247_1       	25.3360     	0.000000    	                	;
 1035247_2       	25.3360     	0.000000    	                	;
 1035445_1       	29.5560     	0.014155    	Heveadorp@      	;
 1035445_2       	29.5560     	0.000000    	                	;
 1035486         	31.3600     	0.080251    	Heveadorp@      	;
 1035498_1       	32.7970     	0.043721    	Heveadorp@      	;
 1035498_2       	32.7970     	0.000000    	                	;
 1035514         	30.2220     	0.013356    	Heveadorp@      	;
 1035556         	29.5450     	0.039041    	Heveadorp@      	;
 1035619         	53.5710     	0.000000    	                	;
 1035642_1       	55.3970     	0.000000    	                	;
 1035642_2       	55.3970     	0.047260    	GEN_09_01_Oosterbeek_hoog	;
 1035697_1       	8.6880      	0.000000    	                	;
 1035697_2       	8.6880      	0.000000    	                	;
 1035741_1       	8.6890      	0.000000    	                	;
 1035741_2       	8.6890      	0.000000    	                	;
 1035752_1       	8.7080      	0.000000    	                	;
 1035752_2       	8.7080      	0.000000    	                	;
 1035762_1       	8.6940      	0.000000    	                	;
 1035762_2       	8.6940      	0.000000    	                	;
 1035781_1       	8.6970      	0.000000    	                	;
 1035781_2       	8.6970      	0.000000    	                	;
 1035929_1       	53.7790     	0.000000    	                	;
 1035929_2       	53.7790     	0.000000    	                	;
 1035997_1       	17.3570     	0.000000    	                	;
 1035997_2       	17.3570     	0.000000    	                	;